**********************
* AUTODESK EAGLE - SPICE MODEL FILE
**********************
.SUBCKT DRIVERD4_1 N1 N2 N3 N4 
A_SOURCE [N1 N2 N3 N4] D_SOURCE4
.MODEL D_SOURCE4 D_SOURCE (INPUT_FILE="DRIVERD4_1.DSOURCE.TXT")
.ENDS DRIVERD4_1