**********************
* AUTODESK EAGLE - SPICE MODEL FILE
**********************
.SUBCKT DRIVERD1_5 N1
A_SOURCE [N1] D_SOURCE1
.MODEL D_SOURCE1 D_SOURCE (INPUT_FILE="driverd1_5.dsource.txt")
.ENDS DRIVERD1_5