**********************
* AUTODESK EAGLE - SPICE MODEL FILE
**********************
.SUBCKT DRIVERD1_7 N1
A_SOURCE [N1] D_SOURCE1
.MODEL D_SOURCE1 D_SOURCE (INPUT_FILE="DRIVERD1_7.DSOURCE.TXT")
.ENDS DRIVERD1_7