**********************
* AUTODESK EAGLE - SPICE MODEL FILE
**********************
.SUBCKT DRIVERD1_4 N1
A_SOURCE [N1] D_SOURCE1
.MODEL D_SOURCE1 D_SOURCE (INPUT_FILE="driverd1_4.dsource.txt")
.ENDS DRIVERD1_4