**********************
* AUTODESK EAGLE - SPICE MODEL FILE
**********************
.SUBCKT DRIVERD81 N1 N2 N3 N4 N5 N6 N7 N8
A_SOURCE [N1 N2 N3 N4 N5 N6 N7 N8] D_SOURCE8
.MODEL D_SOURCE8 D_SOURCE (INPUT_FILE="driverd81.dsource.txt")
.ENDS DRIVERD81